Version 4
SHEET 1 880 1384
WIRE 48 -272 -48 -272
WIRE 272 -272 192 -272
WIRE 48 -144 -48 -144
WIRE 272 -144 272 -272
WIRE 272 -144 192 -144
WIRE 48 0 -48 0
WIRE 272 0 272 -144
WIRE 272 0 192 0
WIRE -448 32 -528 32
WIRE 272 32 272 0
WIRE -1120 48 -1152 48
WIRE -448 64 -448 32
WIRE -1120 96 -1120 48
WIRE 560 128 560 96
WIRE 560 128 512 128
WIRE 608 128 560 128
WIRE -816 160 -1008 160
WIRE 16 160 -48 160
WIRE 512 160 16 160
WIRE 736 160 608 160
WIRE -1008 256 -1008 160
WIRE 560 304 560 272
WIRE 560 304 512 304
WIRE 608 304 560 304
WIRE 64 336 -48 336
WIRE 512 336 64 336
WIRE 736 336 736 160
WIRE 736 336 608 336
WIRE 560 464 560 432
WIRE 560 464 512 464
WIRE 608 464 560 464
WIRE 112 496 -48 496
WIRE 512 496 112 496
WIRE 736 496 736 336
WIRE 736 496 608 496
WIRE -1136 560 -1136 512
WIRE -1136 560 -1312 560
WIRE -976 560 -1136 560
WIRE 160 592 160 576
WIRE 560 640 560 608
WIRE 560 640 512 640
WIRE 608 640 560 640
WIRE -1312 656 -1312 560
WIRE -1264 656 -1312 656
WIRE -1248 656 -1264 656
WIRE -1008 656 -1024 656
WIRE -976 656 -976 560
WIRE -976 656 -1008 656
WIRE 160 672 -48 672
WIRE 512 672 160 672
WIRE 736 672 736 496
WIRE 736 672 608 672
WIRE -1264 720 -1392 720
WIRE -1248 720 -1264 720
WIRE -1008 720 -1024 720
WIRE -928 720 -1008 720
WIRE -1264 784 -1344 784
WIRE -1248 784 -1264 784
WIRE -1008 784 -1024 784
WIRE -928 784 -1008 784
WIRE 560 800 560 784
WIRE 560 800 512 800
WIRE 608 800 560 800
WIRE 224 832 -48 832
WIRE 512 832 224 832
WIRE 736 832 736 672
WIRE 736 832 608 832
WIRE -1344 848 -1344 784
WIRE -1264 848 -1344 848
WIRE -1248 848 -1264 848
WIRE -1008 848 -1024 848
WIRE -928 848 -1008 848
WIRE -1344 912 -1344 848
WIRE 560 944 560 912
WIRE 560 944 512 944
WIRE 608 944 560 944
WIRE 272 976 -48 976
WIRE 512 976 272 976
WIRE 736 976 736 832
WIRE 736 976 608 976
WIRE 736 1152 736 976
FLAG 272 32 0
FLAG 272 896 3v3
IOPIN 272 896 In
FLAG 224 752 3v3
IOPIN 224 752 In
FLAG 160 576 3v3
IOPIN 160 576 In
FLAG 112 416 3v3
IOPIN 112 416 In
FLAG 64 256 3v3
IOPIN 64 256 In
FLAG 16 80 3v3
IOPIN 16 80 In
FLAG -48 -272 GPIO
IOPIN -48 -272 In
FLAG -48 -144 GPIO
IOPIN -48 -144 In
FLAG -48 0 GPIO
IOPIN -48 0 In
FLAG -48 160 GPIO
IOPIN -48 160 Out
FLAG -48 336 GPIO
IOPIN -48 336 Out
FLAG -48 496 GPIO
IOPIN -48 496 Out
FLAG -48 672 GPIO
IOPIN -48 672 Out
FLAG -48 832 GPIO
IOPIN -48 832 Out
FLAG -48 976 GPIO
IOPIN -48 976 Out
FLAG -1264 656 Vref
FLAG -1008 656 Vdd
FLAG -1008 720 CLK
FLAG -1008 784 Dout
FLAG -1008 848 CS
FLAG -1264 848 Vss
FLAG -1264 784 In-
FLAG -1264 720 In+
FLAG -1136 512 3v3
IOPIN -1136 512 In
FLAG -928 720 SCLK
IOPIN -928 720 In
FLAG -928 784 MISO
IOPIN -928 784 Out
FLAG -928 848 CE0
IOPIN -928 848 In
FLAG -1392 720 Opamp_out
IOPIN -1392 720 In
FLAG -1344 912 0
FLAG -816 -96 3v3
IOPIN -816 -96 Out
FLAG -448 64 0
FLAG -528 672 CE0
IOPIN -528 672 Out
FLAG -816 608 SCLK
IOPIN -816 608 Out
FLAG -816 544 MISO
IOPIN -816 544 In
FLAG -528 1120 GPIO
IOPIN -528 1120 Out
FLAG -528 1056 GPIO
IOPIN -528 1056 Out
FLAG -528 992 GPIO
IOPIN -528 992 Out
FLAG -816 -32 GPIO
IOPIN -816 -32 In
FLAG -816 32 GPIO
IOPIN -816 32 In
FLAG -816 96 GPIO
IOPIN -816 96 In
FLAG -816 224 GPIO
IOPIN -816 224 In
FLAG -816 288 GPIO
IOPIN -816 288 In
FLAG -816 352 GPIO
IOPIN -816 352 Out
FLAG -1008 256 0
FLAG 736 1152 0
FLAG -1248 48 GPIO
IOPIN -1248 48 In
FLAG -1120 96 0
FLAG -528 -96 5V
IOPIN -528 -96 Out
FLAG -528 224 PWM
IOPIN -528 224 Out
SYMBOL res 144 -288 R90
WINDOW 0 0 56 VBottom 2
WINDOW 3 32 56 VTop 2
SYMATTR InstName R1
SYMBOL res 144 -160 R90
WINDOW 0 0 56 VBottom 2
WINDOW 3 32 56 VTop 2
SYMATTR InstName R2
SYMBOL res 144 -16 R90
WINDOW 0 0 56 VBottom 2
WINDOW 3 32 56 VTop 2
SYMATTR InstName R3
SYMBOL res 32 176 R180
WINDOW 0 36 76 Left 2
WINDOW 3 36 40 Left 2
SYMATTR InstName R4
SYMBOL res 80 352 R180
WINDOW 0 36 76 Left 2
WINDOW 3 36 40 Left 2
SYMATTR InstName R5
SYMBOL res 128 512 R180
WINDOW 0 36 76 Left 2
WINDOW 3 36 40 Left 2
SYMATTR InstName R6
SYMBOL res 176 688 R180
WINDOW 0 36 76 Left 2
WINDOW 3 36 40 Left 2
SYMATTR InstName R7
SYMBOL res 240 848 R180
WINDOW 0 36 76 Left 2
WINDOW 3 36 40 Left 2
SYMATTR InstName R8
SYMBOL res 256 880 R0
SYMATTR InstName R9
SYMBOL LED 128 -256 R270
WINDOW 0 72 32 VTop 2
WINDOW 3 0 32 VBottom 2
SYMATTR InstName D1
SYMBOL LED 128 -128 R270
WINDOW 0 72 32 VTop 2
WINDOW 3 0 32 VBottom 2
SYMATTR InstName D2
SYMBOL LED 128 16 R270
WINDOW 0 72 32 VTop 2
WINDOW 3 0 32 VBottom 2
SYMATTR InstName D3
SYMBOL Misc\\DIP8 -1136 752 R0
SYMATTR InstName ADC
SYMBOL Misc\\DIP40 -672 0 R0
SYMATTR InstName 40PinHeader
SYMBOL buzzer -1200 -16 R0
SYMATTR InstName X1
TEXT -1352 -232 Left 2 ;Each GPIO pin from 40PinHeader corrisponds with a single GPIO from the other parrts of the cct
